%nproc=3
%chk=chk
%mem=1000mb
# B3lyp/3-21g nosym scf


0 1
8	0.000000000000000000000000000000	0.000000000000000000000000000000	0.000000000000000000000000000000
1	0.996622488679153262225440812472	0.000000000000000000000000000000	0.000000000000000000000000000000
1	-0.240038628374496604278576228353	-0.967279894942415841008198640338	0.000000000000000000000000000000

