%nproc=3
%chk=chk
%mem=1000mb
# B3lyp/3-21g nosym force


0 1
8	0.000000000000000000000000000000	-0.556818181999999994857830643014	0.031858105999999997148819375070
1	-0.214447905783711145755177085448	0.202518817999999989343251627361	0.627901106000000042151043544436
1	-4.993911924489795595150098961312	-1.774679956181716145025006881042	0.627901106000000042151043544436

