%RWF=./tmp/14159740233999471382/rwf
%Int=./tmp/14159740233999471382/int
%D2E=./tmp/14159740233999471382/d2e
%Scr=./tmp/14159740233999471382/skr
%NoSave
%chk=./tmp/14159740233999471382/chk
%nproc=4
%mem=1000mb
# B3lyp/3-21g nosym force
 
 
0 1
6	-0.024025826883248613263788229233	0.841671316323092333355759819824	0.064134450682233001828080887208
7	0.122737839553936536884926056246	0.881746395025648332932632911252	1.515269981762534579061707518122
7	1.153289549261791835377266579599	0.404346224814215504661518707508	2.102152967539190786538938482408
6	2.182578239266685926622812985443	-0.243483286107022134370225785460	1.322359427031805978458578465506
6	-0.805926941613337000092087691883	-0.020816875773052797432560723223	-0.581633084298142866153114027838
1	-1.305080910840267671702008556167	-0.830744135224433022379741942132	-0.061535207783006147519433426396
1	-0.978026801299368919728749460774	0.071149402009343262753837677792	-1.647589466596386387209349777550
6	3.263950574164352413930600960157	-0.675532666919195778909568161907	1.970954768976751925180224134238
1	3.334982691825756795367396989604	-0.538954828716418754552819336823	3.044450300561084343797801921028
1	4.084180181386633634588179120328	-1.162382673422595935619483498158	1.457292668676722913190246799786
1	2.040626054544076861674284373294	-0.362788448728921686381454492221	0.251925360892007954571880645744
1	0.452662350652988154653399988092	1.679290576729340678241442219587	-0.441592167444796235287185481866
 
