%RWF=./tmp/14159740233999471382/rwf
%Int=./tmp/14159740233999471382/int
%D2E=./tmp/14159740233999471382/d2e
%Scr=./tmp/14159740233999471382/skr
%NoSave
%chk=./tmp/14159740233999471382/chk
%nproc=4
%mem=1000mb
# B3lyp/3-21g nosym force
 
 
0 1
6	-0.019445563896619645627428241141	0.818491617963664652712907354726	0.065056646161805745109951715222
7	0.108978133429127654885348874814	0.839836667568468753231059054087	1.518707656108836623332081217086
7	1.147837209809496439305576132028	0.381142809590213182957540993812	2.106617166504122007353316803346
6	2.189473567751170079986877681222	-0.246480398834915931383093834484	1.327278793267387513310495705809
6	-0.834077862749570297928869422321	-0.004333095287535974546311301481	-0.591552721917783519423039706453
1	-1.376169463366050171870824669895	-0.789970089546668918778493662103	-0.077324719977932263037523341609
1	-0.986108873024175269783597741480	0.093551366147639480885800367105	-1.659864765512484074960752877814
6	3.280387425226327646754498346127	-0.656238014999699248441800136789	1.974549991057429787488786132599
1	3.354369509838086571562598692253	-0.508707161962601683846685318713	3.046378887455403194906011776766
1	4.104948452062327390876816934906	-1.136798527990116047803326182475	1.461899678980013606022225758352
1	2.045449256728729459098303777864	-0.377612936964983825216535251457	0.258334067723520077741738987243
1	0.506305208211149215813406954112	1.630618764326535519160188414389	-0.433890679850317873000875579237
 
