%RWF=./tmp/14159740233999471382/rwf
%Int=./tmp/14159740233999471382/int
%D2E=./tmp/14159740233999471382/d2e
%Scr=./tmp/14159740233999471382/skr
%NoSave
%chk=./tmp/14159740233999471382/chk
%nproc=1
%mem=1000mb
# B3lyp/3-21g nosym freq
 
 
0 1
6	-0.021750044850000000568046587546	0.830016050909999969498187510908	0.064093885589999996521548553119
7	0.115968046330000004728866258574	0.859868304899999991164349921746	1.516593310049999976385493027919
7	1.150585639170000007425187504850	0.391974141350000027106403877042	2.104129130540000058857685871772
6	2.186625328119999878140333748888	-0.245353821859999987609057825466	1.324926982370000061450809880625
6	-0.820731085719999975403027292487	-0.012398412209999999308851492685	-0.587001583459999976000176502566
1	-1.340994040940000076034266385250	-0.810747240209999997517797964974	-0.069808381550000006554590470387
1	-0.983975757069999956705430577131	0.083621534220000001691452951036	-1.653859500070000043692175495380
6	3.272738818510000147199434650247	-0.665849471120000035995190046378	1.973312103280000062710541897104
1	3.345491535609999900202637945767	-0.522331454839999986816678756441	3.045781613399999976365961629199
1	4.094901706349999948031381791225	-1.150802765049999898394617048325	1.460940300399999891567404119996
1	2.044022343399999996904625731986	-0.370231745270000023317891191255	0.255121600569999995578029938770
1	0.479064511109999979776574718926	1.655735879190000092719969870814	-0.438039461119999973259808712100
 
