%RWF=./tmp/14159740233999471382/rwf
%Int=./tmp/14159740233999471382/int
%D2E=./tmp/14159740233999471382/d2e
%Scr=./tmp/14159740233999471382/skr
%NoSave
%chk=./tmp/14159740233999471382/chk
%nproc=3
%mem=1000mb
# B3lyp/3-21g nosym force
 
 
0 1
6	0.017470003506818990862692331234	0.381733128115588793427548353066	0.004247219273419131080338217998
7	0.009632434151390376411705496196	0.117259208616896787313876870940	1.413910592513287323157555874786
7	1.083111208434457850557919300627	-0.128845155618822537757495183541	2.047311239006134542250947561115
6	2.316368152904149546600365283666	-0.379728159873683968061897076041	1.359420828963125105204312603746
6	-1.149982313710327108680075980374	0.356803752022774145480354945903	-0.644321990050580883924169484089
1	-2.059182632327297035601532115834	0.093794280485785627710093592668	-0.105897763452278498297332021139
1	-1.219705731407117355047375895083	0.589164875590032055541200861626	-1.704558862136082098004408180714
6	3.448041365878786290721791374381	-0.343705687085090694221634066707	2.068414774439618852852618147153
1	3.412881273488865829790483985562	-0.081880659622740450953592983296	3.124847358493692883740777688217
1	4.412695913065572739242270472459	-0.564314430151012014214018108760	1.617086345082001219708445205470
1	2.308124569370806788981553836493	-0.677074725529072218854764741991	0.308772332607413269034424274651
1	0.942493756643893343394324801920	0.680294573049344264425997153012	-0.493043074739750952772965320037
 
