%RWF=./tmp/14159740233999471382/rwf
%Int=./tmp/14159740233999471382/int
%D2E=./tmp/14159740233999471382/d2e
%Scr=./tmp/14159740233999471382/skr
%NoSave
%chk=./tmp/14159740233999471382/chk
%nproc=4
%mem=1000mb
# B3lyp/3-21g nosym force
 
 
0 1
6	-0.025909767241076121085940897615	0.850674444790270656291397699533	0.062802626891308194201357650854
7	0.128571010709900263035976308856	0.894667449778116519176762722054	1.512606676086410972814633169037
7	1.154824203899186496613538110978	0.409489167267462927934928984541	2.099899675352663752647686123964
6	2.180140423098770430243575901841	-0.246199225000262950091567404343	1.321303157297027741634565245477
6	-0.795859234436462226192077196174	-0.025147753840443782397118255290	-0.579482390384341350397789938143
1	-1.275906827010693911361727259646	-0.845727425866968474110763054341	-0.058219688097785680935825070037
1	-0.979650130862740886605877221882	0.068230841744935918913306238665	-1.643287080283444723249886010308
6	3.259469410900100339034679564065	-0.681822242309174098018331733329	1.970936711513581851562548763468
1	3.332187432630400625299671446555	-0.541266791480980447026638557873	3.043815476439272860176288304501
1	4.076943917983506970870166696841	-1.175087567026808832437723140174	1.458986550897497069811947767448
1	2.038390998118522645654593361542	-0.364089805203663352539678044195	0.250746578985491408442243255195
1	0.428745562230577526019459355666	1.699779907157516811722075544822	-0.443918294697680626548219606775
 
